models/feeders/GridLABD/IEEE/IEEE123_transactive.glm
clock {
     timezone "UTC0";
     starttime '2019-08-24 00:00:00';
     stoptime '2019-08-25 00:00:00';
}
#set maximum_synctime=3600
#set suppress_repeat_messages=1
#set relax_naming_rules=1
#set profiler=1
#set minimum_timestep=30
module connection;
module generators;
module tape;
module powerflow {
     line_capacitance TRUE;
     solver_method FBS;
}
module climate;
module reliability;
object fncs_msg {
    name gridlabdSimulator1;
    configure fncs_config.cfg;
    option "transport:hostname localhost, port 5570";
}
//#define VSOURCE=2401.7771198288433
object recorder {
	name MovingRecorder;
	parent node_150;
	property distribution_load.real;
	interval 30;
	file temp_delete.csv;
};

object regulator_configuration {
	name rcon_reg4;
	connect_type WYE_WYE;
	Control MANUAL;
	current_transducer_ratio 1500.000000;
	power_transducer_ratio 20.000000;
	dwell_time 15.000000;
	raise_taps 16;
	lower_taps 16;
	regulation 0.100000;
	Type B;
	compensator_r_setting_A 0.600000;
	compensator_x_setting_A 1.300000;
	tap_pos_A 10;
	compensator_r_setting_B 1.400000;
	compensator_x_setting_B 2.600000;
	tap_pos_B 4;
	compensator_r_setting_C 0.200000;
	compensator_x_setting_C 1.400000;
	tap_pos_C 6;
};

object regulator {
	name reg_reg4;
	from node_160;
	to node_160r;
	phases ABC;
	configuration rcon_reg4;
};

object regulator_configuration {
	name rcon_reg3;
	connect_type WYE_WYE;
	Control MANUAL;
	current_transducer_ratio 250.000000;
	power_transducer_ratio 20.000000;
	dwell_time 15.000000;
	raise_taps 16;
	lower_taps 16;
	regulation 0.100000;
	Type B;
	compensator_r_setting_A 0.400000;
	compensator_x_setting_A 0.400000;
	tap_pos_A 2;
	compensator_r_setting_C 0.400000;
	compensator_x_setting_C 0.400000;
	tap_pos_C 0;
};

object regulator {
	name reg_reg3;
	from node_25;
	to node_25r;
	phases AC;
	configuration rcon_reg3;
};

object regulator_configuration {
	name rcon_reg2;
	connect_type WYE_WYE;
	Control MANUAL;
	current_transducer_ratio 250.000000;
	power_transducer_ratio 20.000000;
	dwell_time 15.000000;
	raise_taps 16;
	lower_taps 16;
	regulation 0.100000;
	Type B;
	compensator_r_setting_A 0.400000;
	compensator_x_setting_A 0.400000;
	tap_pos_A 0;
};

object regulator {
	name reg_reg2;
	from node_9;
	to node_9r;
	phases A;
	configuration rcon_reg2;
};

object line_configuration {
	name lcon_11_C;
	z33 1.32920+1.34750j;
	c33 11.9873;
};

object line_configuration {
	name lcon_1_ABC;
	z11 0.457600+1.07800j;
	c11 15.0567;
	z12 0.156000+0.501700j;
	c12 -4.8590;
	z13 0.153500+0.384900j;
	c13 -1.8519;
	z21 0.156000+0.501700j;
	c21 -4.8590;
	z22 0.466600+1.04820j;
	c22 15.8641;
	z23 0.158000+0.423600j;
	c23 -3.0888;
	z31 0.153500+0.384900j;
	c31 -1.8519;
	z32 0.158000+0.423600j;
	c32 -3.0888;
	z33 0.461500+1.06510j;
	c33 14.3156;
};

object line_configuration {
	name lcon_12_ABC;
	z11 1.52090+0.752100j;
	c11 178.3093;
	z12 0.519800+0.277500j;
	c12 0.0000;
	z13 0.492400+0.215700j;
	c13 0.0000;
	z21 0.519800+0.277500j;
	c21 0.0000;
	z22 1.53290+0.716200j;
	c22 178.3093;
	z23 0.519800+0.277500j;
	c23 0.0000;
	z31 0.492400+0.215700j;
	c31 0.0000;
	z32 0.519800+0.277500j;
	c32 0.0000;
	z33 1.52090+0.752100j;
	c33 178.3093;
};

object line_configuration {
	name lcon_2_ABC;
	z11 0.466600+1.04820j;
	c11 15.8641;
	z12 0.158000+0.423600j;
	c12 -3.0888;
	z13 0.156000+0.501700j;
	c13 -4.8590;
	z21 0.158000+0.423600j;
	c21 -3.0888;
	z22 0.461500+1.06510j;
	c22 14.3156;
	z23 0.153500+0.384900j;
	c23 -1.8519;
	z31 0.156000+0.501700j;
	c31 -4.8590;
	z32 0.153500+0.384900j;
	c32 -1.8519;
	z33 0.457600+1.07800j;
	c33 15.0567;
};

object line_configuration {
	name lcon_3_ABC;
	z11 0.461500+1.06510j;
	c11 14.3156;
	z12 0.153500+0.384900j;
	c12 -1.8519;
	z13 0.158000+0.423600j;
	c13 -3.0888;
	z21 0.153500+0.384900j;
	c21 -1.8519;
	z22 0.457600+1.07800j;
	c22 15.0567;
	z23 0.156000+0.501700j;
	c23 -4.8590;
	z31 0.158000+0.423600j;
	c31 -3.0888;
	z32 0.156000+0.501700j;
	c32 -4.8590;
	z33 0.466600+1.04820j;
	c33 15.8641;
};

object line_configuration {
	name lcon_4_ABC;
	z11 0.461500+1.06510j;
	c11 14.3156;
	z12 0.158000+0.423600j;
	c12 -3.0888;
	z13 0.153500+0.384900j;
	c13 -1.8519;
	z21 0.158000+0.423600j;
	c21 -3.0888;
	z22 0.466600+1.04820j;
	c22 15.8641;
	z23 0.156000+0.501700j;
	c23 -4.8590;
	z31 0.153500+0.384900j;
	c31 -1.8519;
	z32 0.156000+0.501700j;
	c32 -4.8590;
	z33 0.457600+1.07800j;
	c33 15.0567;
};

object line_configuration {
	name lcon_5_ABC;
	z11 0.466600+1.04820j;
	c11 15.8641;
	z12 0.156000+0.501700j;
	c12 -4.8590;
	z13 0.158000+0.423600j;
	c13 -3.0888;
	z21 0.156000+0.501700j;
	c21 -4.8590;
	z22 0.457600+1.07800j;
	c22 15.0567;
	z23 0.153500+0.384900j;
	c23 -1.8519;
	z31 0.158000+0.423600j;
	c31 -3.0888;
	z32 0.153500+0.384900j;
	c32 -1.8519;
	z33 0.461500+1.06510j;
	c33 14.3156;
};

object line_configuration {
	name lcon_6_ABC;
	z11 0.457600+1.07800j;
	c11 15.0567;
	z12 0.153500+0.384900j;
	c12 -1.8519;
	z13 0.156000+0.501700j;
	c13 -4.8590;
	z21 0.153500+0.384900j;
	c21 -1.8519;
	z22 0.461500+1.06510j;
	c22 14.3156;
	z23 0.158000+0.423600j;
	c23 -3.0888;
	z31 0.156000+0.501700j;
	c31 -4.8590;
	z32 0.158000+0.423600j;
	c32 -3.0888;
	z33 0.466600+1.04820j;
	c33 15.8641;
};

object line_configuration {
	name lcon_7_AC;
	z11 0.457600+1.07800j;
	c11 13.5684;
	z13 0.153500+0.384900j;
	c13 -2.7981;
	z31 0.153500+0.384900j;
	c31 -2.7981;
	z33 0.461500+1.06510j;
	c33 13.7143;
};

object line_configuration {
	name lcon_8_AB;
	z11 0.457600+1.07800j;
	c11 13.5684;
	z12 0.153500+0.384900j;
	c12 -2.7981;
	z21 0.153500+0.384900j;
	c21 -2.7981;
	z22 0.461500+1.06510j;
	c22 13.7143;
};

object line_configuration {
	name lcon_9_A;
	z11 1.32920+1.34750j;
	c11 11.9873;
};

object line_configuration {
	name lcon_10_B;
	z22 1.32920+1.34750j;
	c22 11.9873;
};

object triplex_line_configuration {
	name trip_line_config;
	z11 1.52+0.61j;
	z12 +0.55+0.44j;
	z21 +0.55+0.44j;
	z22 +1.52+0.61j;
};

object capacitor {
	name cap_c88a;
	parent node_88;
	phases AN;
	phases_connected AN;
	cap_nominal_voltage 2402.00;
	capacitor_A 50000.00;
	switchA CLOSED;
};

object capacitor {
	name cap_c90b;
	parent node_90;
	phases BN;
	phases_connected BN;
	cap_nominal_voltage 2402.00;
	capacitor_B 50000.00;
	switchB CLOSED;
};

object capacitor {
	name cap_c92c;
	parent node_92;
	phases CN;
	phases_connected CN;
	cap_nominal_voltage 2402.00;
	capacitor_C 50000.00;
	switchC CLOSED;
};

object capacitor {
	name cap_c83;
	parent node_83;
	phases ABCN;
	phases_connected ABCN;
	cap_nominal_voltage 2401.78;
	capacitor_A 200000.00;
	switchA CLOSED;
	capacitor_B 200000.00;
	switchB CLOSED;
	capacitor_C 200000.00;
	switchC CLOSED;
};

object overhead_line {
	name line_l50;
	from node_50;
	to node_51;
	phases ABC;
	length 250.0046;
	configuration lcon_4_ABC;
};

object overhead_line {
	name line_l52;
	from node_52;
	to node_53;
	phases ABC;
	length 200.0037;
	configuration lcon_1_ABC;
};

object overhead_line {
	name line_l51;
	from node_51;
	to node_151;
	phases ABC;
	length 500.0092;
	configuration lcon_4_ABC;
};

object overhead_line {
	name line_l54;
	from node_54;
	to node_55;
	phases ABC;
	length 275.0050;
	configuration lcon_1_ABC;
};

object overhead_line {
	name line_l53;
	from node_53;
	to node_54;
	phases ABC;
	length 125.0023;
	configuration lcon_1_ABC;
};

object overhead_line {
	name line_l56;
	from node_55;
	to node_56;
	phases ABC;
	length 275.0050;
	configuration lcon_1_ABC;
};

object overhead_line {
	name line_l55;
	from node_54;
	to node_57;
	phases ABC;
	length 350.0064;
	configuration lcon_3_ABC;
};

object overhead_line {
	name line_l58;
	from node_57;
	to node_60;
	phases ABC;
	length 750.0137;
	configuration lcon_3_ABC;
};

object overhead_line {
	name line_l57;
	from node_57;
	to node_58;
	phases B;
	length 250.0046;
	configuration lcon_10_B;
};

object overhead_line {
	name line_l59;
	from node_58;
	to node_59;
	phases B;
	length 250.0046;
	configuration lcon_10_B;
};

object overhead_line {
	name line_l111;
	from node_110;
	to node_112;
	phases A;
	length 125.0023;
	configuration lcon_9_A;
};

object overhead_line {
	name line_l110;
	from node_110;
	to node_111;
	phases A;
	length 575.0105;
	configuration lcon_9_A;
};

object overhead_line {
	name line_l113;
	from node_113;
	to node_114;
	phases A;
	length 325.0060;
	configuration lcon_9_A;
};

object overhead_line {
	name line_l112;
	from node_112;
	to node_113;
	phases A;
	length 525.0096;
	configuration lcon_9_A;
};

object overhead_line {
	name line_l115;
	from node_149;
	to node_1;
	phases ABC;
	length 400.0073;
	configuration lcon_1_ABC;
};

object overhead_line {
	name line_l114;
	from node_135;
	to node_35;
	phases ABC;
	length 375.0069;
	configuration lcon_4_ABC;
};

object overhead_line {
	name line_l117;
	from node_160r;
	to node_67;
	phases ABC;
	length 350.0064;
	configuration lcon_6_ABC;
};

object overhead_line {
	name line_l116;
	from node_152;
	to node_52;
	phases ABC;
	length 400.0073;
	configuration lcon_1_ABC;
};

object overhead_line {
	name line_l118;
	from node_197;
	to node_101;
	phases ABC;
	length 250.0046;
	configuration lcon_3_ABC;
};

object overhead_line {
	name line_l61;
	from node_60;
	to node_62;
	phases ABC;
	length 250.0046;
	configuration lcon_12_ABC;
};

object overhead_line {
	name line_l60;
	from node_60;
	to node_61;
	phases ABC;
	length 550.0101;
	configuration lcon_5_ABC;
};

object overhead_line {
	name line_l63;
	from node_63;
	to node_64;
	phases ABC;
	length 350.0064;
	configuration lcon_12_ABC;
};

object overhead_line {
	name line_l62;
	from node_62;
	to node_63;
	phases ABC;
	length 175.0032;
	configuration lcon_12_ABC;
};

object overhead_line {
	name line_l65;
	from node_65;
	to node_66;
	phases ABC;
	length 325.0060;
	configuration lcon_12_ABC;
};

object overhead_line {
	name line_l64;
	from node_64;
	to node_65;
	phases ABC;
	length 425.0078;
	configuration lcon_12_ABC;
};

object overhead_line {
	name line_l67;
	from node_67;
	to node_72;
	phases ABC;
	length 275.0050;
	configuration lcon_3_ABC;
};

object overhead_line {
	name line_l66;
	from node_67;
	to node_68;
	phases A;
	length 200.0037;
	configuration lcon_9_A;
};

object overhead_line {
	name line_l69;
	from node_68;
	to node_69;
	phases A;
	length 275.0050;
	configuration lcon_9_A;
};

object overhead_line {
	name line_l68;
	from node_67;
	to node_97;
	phases ABC;
	length 250.0046;
	configuration lcon_3_ABC;
};

object overhead_line {
	name line_l100;
	from node_101;
	to node_102;
	phases C;
	length 225.0041;
	configuration lcon_11_C;
};

object overhead_line {
	name line_l102;
	from node_102;
	to node_103;
	phases C;
	length 325.0060;
	configuration lcon_11_C;
};

object overhead_line {
	name line_l101;
	from node_101;
	to node_105;
	phases ABC;
	length 275.0050;
	configuration lcon_3_ABC;
};

object overhead_line {
	name line_l104;
	from node_105;
	to node_106;
	phases B;
	length 225.0041;
	configuration lcon_10_B;
};

object overhead_line {
	name line_l103;
	from node_103;
	to node_104;
	phases C;
	length 700.0128;
	configuration lcon_11_C;
};

object overhead_line {
	name line_l106;
	from node_106;
	to node_107;
	phases B;
	length 575.0105;
	configuration lcon_10_B;
};

object overhead_line {
	name line_l105;
	from node_105;
	to node_108;
	phases ABC;
	length 325.0060;
	configuration lcon_3_ABC;
};

object overhead_line {
	name line_l108;
	from node_108;
	to node_300;
	phases ABC;
	length 1000.0183;
	configuration lcon_3_ABC;
};

object overhead_line {
	name line_l107;
	from node_108;
	to node_109;
	phases A;
	length 450.0082;
	configuration lcon_9_A;
};

object overhead_line {
	name line_l109;
	from node_109;
	to node_110;
	phases A;
	length 300.0055;
	configuration lcon_9_A;
};

object overhead_line {
	name line_l70;
	from node_69;
	to node_70;
	phases A;
	length 325.0060;
	configuration lcon_9_A;
};

object overhead_line {
	name line_l1;
	from node_1;
	to node_2;
	phases B;
	length 175.0032;
	configuration lcon_10_B;
};

object overhead_line {
	name line_l2;
	from node_1;
	to node_3;
	phases C;
	length 250.0046;
	configuration lcon_11_C;
};

object overhead_line {
	name line_l72;
	from node_72;
	to node_73;
	phases C;
	length 275.0050;
	configuration lcon_11_C;
};

object overhead_line {
	name line_l3;
	from node_1;
	to node_7;
	phases ABC;
	length 300.0055;
	configuration lcon_1_ABC;
};

object overhead_line {
	name line_l71;
	from node_70;
	to node_71;
	phases A;
	length 275.0050;
	configuration lcon_9_A;
};

object overhead_line {
	name line_l4;
	from node_3;
	to node_4;
	phases C;
	length 200.0037;
	configuration lcon_11_C;
};

object overhead_line {
	name line_l74;
	from node_73;
	to node_74;
	phases C;
	length 350.0064;
	configuration lcon_11_C;
};

object overhead_line {
	name line_l5;
	from node_3;
	to node_5;
	phases C;
	length 325.0060;
	configuration lcon_11_C;
};

object overhead_line {
	name line_l73;
	from node_72;
	to node_76;
	phases ABC;
	length 200.0037;
	configuration lcon_3_ABC;
};

object overhead_line {
	name line_l6;
	from node_5;
	to node_6;
	phases C;
	length 250.0046;
	configuration lcon_11_C;
};

object overhead_line {
	name line_l76;
	from node_76;
	to node_77;
	phases ABC;
	length 400.0073;
	configuration lcon_6_ABC;
};

object overhead_line {
	name line_l7;
	from node_7;
	to node_8;
	phases ABC;
	length 200.0037;
	configuration lcon_1_ABC;
};

object overhead_line {
	name line_l75;
	from node_74;
	to node_75;
	phases C;
	length 400.0073;
	configuration lcon_11_C;
};

object overhead_line {
	name line_l78;
	from node_77;
	to node_78;
	phases ABC;
	length 100.0018;
	configuration lcon_6_ABC;
};

object overhead_line {
	name line_l8;
	from node_8;
	to node_12;
	phases B;
	length 225.0041;
	configuration lcon_10_B;
};

object overhead_line {
	name line_l77;
	from node_76;
	to node_86;
	phases ABC;
	length 700.0128;
	configuration lcon_3_ABC;
};

object overhead_line {
	name line_l9;
	from node_8;
	to node_9;
	phases A;
	length 225.0041;
	configuration lcon_9_A;
};

object overhead_line {
	name line_l79;
	from node_78;
	to node_79;
	phases ABC;
	length 225.0041;
	configuration lcon_6_ABC;
};

object overhead_line {
	name line_l81;
	from node_80;
	to node_81;
	phases ABC;
	length 175.0032;
	configuration lcon_6_ABC;
};

object overhead_line {
	name line_l80;
	from node_78;
	to node_80;
	phases ABC;
	length 475.0087;
	configuration lcon_6_ABC;
};

object overhead_line {
	name line_l83;
	from node_81;
	to node_84;
	phases C;
	length 675.0124;
	configuration lcon_11_C;
};

object overhead_line {
	name line_l82;
	from node_81;
	to node_82;
	phases ABC;
	length 250.0046;
	configuration lcon_6_ABC;
};

object overhead_line {
	name line_l85;
	from node_84;
	to node_85;
	phases C;
	length 475.0087;
	configuration lcon_11_C;
};

object overhead_line {
	name line_l84;
	from node_82;
	to node_83;
	phases ABC;
	length 250.0046;
	configuration lcon_6_ABC;
};

object overhead_line {
	name line_l87;
	from node_87;
	to node_88;
	phases A;
	length 175.0032;
	configuration lcon_9_A;
};

object overhead_line {
	name line_l86;
	from node_86;
	to node_87;
	phases ABC;
	length 450.0082;
	configuration lcon_6_ABC;
};

object overhead_line {
	name line_l89;
	from node_89;
	to node_90;
	phases B;
	length 250.0046;
	configuration lcon_10_B;
};

object overhead_line {
	name line_l88;
	from node_87;
	to node_89;
	phases ABC;
	length 275.0050;
	configuration lcon_6_ABC;
};

object overhead_line {
	name line_l90;
	from node_89;
	to node_91;
	phases ABC;
	length 225.0041;
	configuration lcon_6_ABC;
};

object overhead_line {
	name line_l92;
	from node_91;
	to node_93;
	phases ABC;
	length 225.0041;
	configuration lcon_6_ABC;
};

object overhead_line {
	name line_l91;
	from node_91;
	to node_92;
	phases C;
	length 300.0055;
	configuration lcon_11_C;
};

object overhead_line {
	name line_l94;
	from node_93;
	to node_95;
	phases ABC;
	length 300.0055;
	configuration lcon_6_ABC;
};

object overhead_line {
	name line_l93;
	from node_93;
	to node_94;
	phases A;
	length 275.0050;
	configuration lcon_9_A;
};

object overhead_line {
	name line_l96;
	from node_97;
	to node_98;
	phases ABC;
	length 275.0050;
	configuration lcon_3_ABC;
};

object overhead_line {
	name line_l95;
	from node_95;
	to node_96;
	phases B;
	length 200.0037;
	configuration lcon_10_B;
};

object overhead_line {
	name line_l10;
	from node_8;
	to node_13;
	phases ABC;
	length 300.0055;
	configuration lcon_1_ABC;
};

object overhead_line {
	name line_l98;
	from node_99;
	to node_100;
	phases ABC;
	length 300.0055;
	configuration lcon_3_ABC;
};

object overhead_line {
	name line_l97;
	from node_98;
	to node_99;
	phases ABC;
	length 550.0101;
	configuration lcon_3_ABC;
};

object overhead_line {
	name line_l12;
	from node_13;
	to node_34;
	phases C;
	length 150.0027;
	configuration lcon_11_C;
};

object overhead_line {
	name line_l11;
	from node_9r;
	to node_14;
	phases A;
	length 425.0078;
	configuration lcon_9_A;
};

object overhead_line {
	name line_l99;
	from node_100;
	to node_450;
	phases ABC;
	length 800.0147;
	configuration lcon_3_ABC;
};

object overhead_line {
	name line_l14;
	from node_14;
	to node_11;
	phases A;
	length 250.0046;
	configuration lcon_9_A;
};

object overhead_line {
	name line_l13;
	from node_13;
	to node_18;
	phases ABC;
	length 825.0151;
	configuration lcon_2_ABC;
};

object overhead_line {
	name line_l16;
	from node_15;
	to node_16;
	phases C;
	length 375.0069;
	configuration lcon_11_C;
};

object overhead_line {
	name line_l15;
	from node_14;
	to node_10;
	phases A;
	length 250.0046;
	configuration lcon_9_A;
};

object overhead_line {
	name line_l18;
	from node_18;
	to node_19;
	phases A;
	length 250.0046;
	configuration lcon_9_A;
};

object overhead_line {
	name line_l17;
	from node_15;
	to node_17;
	phases C;
	length 350.0064;
	configuration lcon_11_C;
};

object overhead_line {
	name line_l19;
	from node_18;
	to node_21;
	phases ABC;
	length 300.0055;
	configuration lcon_2_ABC;
};

object overhead_line {
	name line_l21;
	from node_21;
	to node_22;
	phases B;
	length 525.0096;
	configuration lcon_10_B;
};

object overhead_line {
	name line_l20;
	from node_19;
	to node_20;
	phases A;
	length 325.0060;
	configuration lcon_9_A;
};

object overhead_line {
	name line_l23;
	from node_23;
	to node_24;
	phases C;
	length 550.0101;
	configuration lcon_11_C;
};

object overhead_line {
	name line_l22;
	from node_21;
	to node_23;
	phases ABC;
	length 250.0046;
	configuration lcon_2_ABC;
};

object overhead_line {
	name line_l25;
	from node_25r;
	to node_26;
	phases AC;
	length 350.0064;
	configuration lcon_7_AC;
};

object overhead_line {
	name line_l24;
	from node_23;
	to node_25;
	phases ABC;
	length 275.0050;
	configuration lcon_2_ABC;
};

object overhead_line {
	name line_l27;
	from node_26;
	to node_27;
	phases AC;
	length 275.0050;
	configuration lcon_7_AC;
};

object overhead_line {
	name line_l26;
	from node_25;
	to node_28;
	phases ABC;
	length 200.0037;
	configuration lcon_2_ABC;
};

object overhead_line {
	name line_l29;
	from node_27;
	to node_33;
	phases A;
	length 500.0092;
	configuration lcon_9_A;
};

object overhead_line {
	name line_l28;
	from node_26;
	to node_31;
	phases C;
	length 225.0041;
	configuration lcon_11_C;
};

object overhead_line {
	name line_l30;
	from node_28;
	to node_29;
	phases ABC;
	length 300.0055;
	configuration lcon_2_ABC;
};

object overhead_line {
	name line_l32;
	from node_30;
	to node_250;
	phases ABC;
	length 200.0037;
	configuration lcon_2_ABC;
};

object overhead_line {
	name line_l31;
	from node_29;
	to node_30;
	phases ABC;
	length 350.0064;
	configuration lcon_2_ABC;
};

object overhead_line {
	name line_l34;
	from node_34;
	to node_15;
	phases C;
	length 100.0018;
	configuration lcon_11_C;
};

object overhead_line {
	name line_l33;
	from node_31;
	to node_32;
	phases C;
	length 300.0055;
	configuration lcon_11_C;
};

object overhead_line {
	name line_l36;
	from node_35;
	to node_40;
	phases ABC;
	length 250.0046;
	configuration lcon_1_ABC;
};

object overhead_line {
	name line_l35;
	from node_35;
	to node_36;
	phases AB;
	length 650.0119;
	configuration lcon_8_AB;
};

object overhead_line {
	name line_l38;
	from node_36;
	to node_38;
	phases B;
	length 250.0046;
	configuration lcon_10_B;
};

object overhead_line {
	name line_l37;
	from node_36;
	to node_37;
	phases A;
	length 300.0055;
	configuration lcon_9_A;
};

object overhead_line {
	name line_l39;
	from node_38;
	to node_39;
	phases B;
	length 325.0060;
	configuration lcon_10_B;
};

object overhead_line {
	name line_l41;
	from node_40;
	to node_42;
	phases ABC;
	length 250.0046;
	configuration lcon_1_ABC;
};

object overhead_line {
	name line_l40;
	from node_40;
	to node_41;
	phases C;
	length 325.0060;
	configuration lcon_11_C;
};

object overhead_line {
	name line_l43;
	from node_42;
	to node_44;
	phases ABC;
	length 200.0037;
	configuration lcon_1_ABC;
};

object overhead_line {
	name line_l42;
	from node_42;
	to node_43;
	phases B;
	length 500.0092;
	configuration lcon_10_B;
};

object overhead_line {
	name line_l45;
	from node_44;
	to node_47;
	phases ABC;
	length 250.0046;
	configuration lcon_1_ABC;
};

object overhead_line {
	name line_l44;
	from node_44;
	to node_45;
	phases A;
	length 200.0037;
	configuration lcon_9_A;
};

object overhead_line {
	name line_l47;
	from node_47;
	to node_48;
	phases ABC;
	length 150.0027;
	configuration lcon_4_ABC;
};

object overhead_line {
	name line_l46;
	from node_45;
	to node_46;
	phases A;
	length 300.0055;
	configuration lcon_9_A;
};

object overhead_line {
	name line_l49;
	from node_49;
	to node_50;
	phases ABC;
	length 250.0046;
	configuration lcon_4_ABC;
};

object overhead_line {
	name line_l48;
	from node_47;
	to node_49;
	phases ABC;
	length 250.0046;
	configuration lcon_4_ABC;
};

object switch {
	name swt_sw5;
	from node_97;
	to node_197;
	phases ABC;
	status CLOSED;
};

object switch {
	name swt_sw4;
	from node_60;
	to node_160;
	phases ABC;
	status CLOSED;
};

object switch {
	name swt_sw7;
	from node_151;
	to node_300;
	phases ABC;
	status OPEN;
};

object switch {
	name swt_sw6;
	from node_61;
	to node_61s;
	phases ABC;
	status CLOSED;
};

object switch {
	name swt_sw8;
	from node_54;
	to node_94;
	phases A;
	status OPEN;
};

object switch {
	name swt_sw1;
	from node_150r;
	to node_149;
	phases ABC;
	status CLOSED;
};

object switch {
	name swt_sw3;
	from node_18;
	to node_135;
	phases ABC;
	status CLOSED;
};

object switch {
	name swt_sw2;
	from node_13;
	to node_152;
	phases ABC;
	status CLOSED;
};

object transformer_configuration {
	name xcon_reg1a;
	connect_type WYE_WYE;
	primary_voltage 2401.777;
	secondary_voltage 2401.777;
	power_rating 5000.000;
	resistance 0.000001;
	reactance 0.000010;
};

object transformer {
	name xf_reg1a;
	from node_150;
	to node_150r;
	phases ABC;
	configuration xcon_reg1a;
};

object transformer_configuration {
	name xcon_xfm1;
	connect_type DELTA_DELTA;
	primary_voltage 2401.777;
	secondary_voltage 277.128;
	power_rating 150.000;
	resistance 0.012700;
	reactance 0.027200;
};

object transformer {
	name xf_xfm1;
	from node_61s;
	to node_610;
	phases ABC;
	configuration xcon_xfm1;
};

object node {
	name node_88;
	phases AN;
	nominal_voltage 2401.78;
};

object node {
	name node_89;
	phases ABCN;
	nominal_voltage 2401.78;
};

object node {
	name node_197;
	phases ABCN;
	nominal_voltage 2401.78;
};

object node {
	name node_110;
	phases AN;
	nominal_voltage 2401.78;
};

object node {
	name node_111;
	phases AN;
	nominal_voltage 2401.78;
};

object node {
	name node_112;
	phases AN;
	nominal_voltage 2401.78;
};

object node {
	name node_113;
	phases AN;
	nominal_voltage 2401.78;
};

object node {
	name node_114;
	phases AN;
	nominal_voltage 2401.78;
};

object node {
	name node_90;
	phases BN;
	nominal_voltage 2401.78;
};

object node {
	name node_61s;
	phases ABCN;
	nominal_voltage 2401.78;
};

object node {
	name node_91;
	phases ABCN;
	nominal_voltage 2401.78;
};

object node {
	name node_92;
	phases CN;
	nominal_voltage 2401.78;
};

object node {
	name node_93;
	phases ABCN;
	nominal_voltage 2401.78;
};

object node {
	name node_94;
	phases AN;
	nominal_voltage 2401.78;
};

object node {
	name node_95;
	phases ABCN;
	nominal_voltage 2401.78;
};

object node {
	name node_96;
	phases BN;
	nominal_voltage 2401.78;
};

object node {
	name node_97;
	phases ABCN;
	nominal_voltage 2401.78;
};

object node {
	name node_10;
	phases AN;
	nominal_voltage 2401.78;
};

object node {
	name node_98;
	phases ABCN;
	nominal_voltage 2401.78;
};

object node {
	name node_11;
	phases AN;
	nominal_voltage 2401.78;
};

object node {
	name node_99;
	phases ABCN;
	nominal_voltage 2401.78;
};

object node {
	name node_12;
	phases BN;
	nominal_voltage 2401.78;
};

object node {
	name node_13;
	phases ABCN;
	nominal_voltage 2401.78;
};

object node {
	name node_14;
	phases AN;
	nominal_voltage 2401.78;
};

object node {
	name node_15;
	phases CN;
	nominal_voltage 2401.78;
};

object node {
	name node_16;
	phases CN;
	nominal_voltage 2401.78;
};

object node {
	name node_17;
	phases CN;
	nominal_voltage 2401.78;
};

object node {
	name node_18;
	phases ABCN;
	nominal_voltage 2401.78;
};

object node {
	name node_19;
	phases AN;
	nominal_voltage 2401.78;
};

object node {
	name node_160r;
	phases ABCN;
	nominal_voltage 2401.78;
};

object node {
	name node_1;
	phases ABCN;
	nominal_voltage 2401.78;
};

object node {
	name node_2;
	phases BN;
	nominal_voltage 2401.78;
};

object node {
	name node_3;
	phases CN;
	nominal_voltage 2401.78;
};

object node {
	name node_4;
	phases CN;
	nominal_voltage 2401.78;
};

object node {
	name node_5;
	phases CN;
	nominal_voltage 2401.78;
};

object node {
	name node_6;
	phases CN;
	nominal_voltage 2401.78;
};

object node {
	name node_7;
	phases ABCN;
	nominal_voltage 2401.78;
};

object node {
	name node_8;
	phases ABCN;
	nominal_voltage 2401.78;
};

object node {
	name node_9;
	phases AN;
	nominal_voltage 2401.78;
};

object node {
	name node_20;
	phases AN;
	nominal_voltage 2401.78;
};

object node {
	name node_21;
	phases ABCN;
	nominal_voltage 2401.78;
};

object node {
	name node_22;
	phases BN;
	nominal_voltage 2401.78;
};

object node {
	name node_23;
	phases ABCN;
	nominal_voltage 2401.78;
};

object node {
	name node_24;
	phases CN;
	nominal_voltage 2401.78;
};

object node {
	name node_25;
	phases ABCN;
	nominal_voltage 2401.78;
};

object node {
	name node_26;
	phases ACN;
	nominal_voltage 2401.78;
};

object node {
	name node_27;
	phases ACN;
	nominal_voltage 2401.78;
};

object node {
	name node_28;
	phases ABCN;
	nominal_voltage 2401.78;
};

object node {
	name node_29;
	phases ABCN;
	nominal_voltage 2401.78;
};

object node {
	name node_250;
	phases ABCN;
	nominal_voltage 2401.78;
};

object node {
	name node_135;
	phases ABCN;
	nominal_voltage 2401.78;
};

object node {
	name node_9r;
	phases AN;
	nominal_voltage 2401.78;
};

object node {
	name node_30;
	phases ABCN;
	nominal_voltage 2401.78;
};

object node {
	name node_31;
	phases CN;
	nominal_voltage 2401.78;
};

object node {
	name node_32;
	phases CN;
	nominal_voltage 2401.78;
};

object node {
	name node_33;
	phases AN;
	nominal_voltage 2401.78;
};

object node {
	name node_34;
	phases CN;
	nominal_voltage 2401.78;
};

object node {
	name node_35;
	phases ABCN;
	nominal_voltage 2401.78;
};

object node {
	name node_36;
	phases ABN;
	nominal_voltage 2401.78;
};

object node {
	name node_37;
	phases AN;
	nominal_voltage 2401.78;
};

object node {
	name node_38;
	phases BN;
	nominal_voltage 2401.78;
};

object node {
	name node_39;
	phases BN;
	nominal_voltage 2401.78;
};

object node {
	name node_150r;
	phases ABCN;
	nominal_voltage 2401.78;
};

object node {
	name node_300;
	phases ABCN;
	nominal_voltage 2401.78;
};

object node {
	name node_149;
	phases ABCN;
	nominal_voltage 2401.78;
};

object node {
	name node_40;
	phases ABCN;
	nominal_voltage 2401.78;
};

object node {
	name node_41;
	phases CN;
	nominal_voltage 2401.78;
};

object node {
	name node_42;
	phases ABCN;
	nominal_voltage 2401.78;
};

object node {
	name node_43;
	phases BN;
	nominal_voltage 2401.78;
};

object node {
	name node_44;
	phases ABCN;
	nominal_voltage 2401.78;
};

object node {
	name node_45;
	phases AN;
	nominal_voltage 2401.78;
};

object node {
	name node_46;
	phases AN;
	nominal_voltage 2401.78;
};

object node {
	name node_47;
	phases ABCN;
	nominal_voltage 2401.78;
};

object node {
	name node_48;
	phases ABCN;
	nominal_voltage 2401.78;
};

object node {
	name node_49;
	phases ABCN;
	nominal_voltage 2401.78;
};

object substation {
	name node_150;
	bustype SWING;
	phases ABCN;
	nominal_voltage 2401.78;
	base_power 12MVA;
	power_convergence_value 100VA;
	positive_sequence_voltage 2401.777;
};

object node {
	name node_151;
	phases ABCN;
	nominal_voltage 2401.78;
};

object node {
	name node_152;
	phases ABCN;
	nominal_voltage 2401.78;
};

object node {
	name node_25r;
	phases ACN;
	nominal_voltage 2401.78;
};

object node {
	name node_50;
	phases ABCN;
	nominal_voltage 2401.78;
};

object node {
	name node_51;
	phases ABCN;
	nominal_voltage 2401.78;
};

object node {
	name node_52;
	phases ABCN;
	nominal_voltage 2401.78;
};

object node {
	name node_53;
	phases ABCN;
	nominal_voltage 2401.78;
};

object node {
	name node_54;
	phases ABCN;
	nominal_voltage 2401.78;
};

object node {
	name node_55;
	phases ABCN;
	nominal_voltage 2401.78;
};

object node {
	name node_56;
	phases ABCN;
	nominal_voltage 2401.78;
};

object node {
	name node_57;
	phases ABCN;
	nominal_voltage 2401.78;
};

object node {
	name node_58;
	phases BN;
	nominal_voltage 2401.78;
};

object node {
	name node_59;
	phases BN;
	nominal_voltage 2401.78;
};

object node {
	name node_160;
	phases ABCN;
	nominal_voltage 2401.78;
};

object node {
	name node_60;
	phases ABCN;
	nominal_voltage 2401.78;
};

object node {
	name node_61;
	phases ABCN;
	nominal_voltage 2401.78;
};

object node {
	name node_62;
	phases ABCN;
	nominal_voltage 2401.78;
};

object node {
	name node_63;
	phases ABCN;
	nominal_voltage 2401.78;
};

object node {
	name node_64;
	phases ABCN;
	nominal_voltage 2401.78;
};

object node {
	name node_65;
	phases ABCN;
	nominal_voltage 2401.78;
};

object node {
	name node_66;
	phases ABCN;
	nominal_voltage 2401.78;
};

object node {
	name node_67;
	phases ABCN;
	nominal_voltage 2401.78;
};

object node {
	name node_68;
	phases AN;
	nominal_voltage 2401.78;
};

object node {
	name node_69;
	phases AN;
	nominal_voltage 2401.78;
};

object node {
	name node_450;
	phases ABCN;
	nominal_voltage 2401.78;
};

object node {
	name node_610;
	phases ABCN;
	nominal_voltage 277.13;
};

object node {
	name node_70;
	phases AN;
	nominal_voltage 2401.78;
};

object node {
	name node_71;
	phases AN;
	nominal_voltage 2401.78;
};

object node {
	name node_72;
	phases ABCN;
	nominal_voltage 2401.78;
};

object node {
	name node_73;
	phases CN;
	nominal_voltage 2401.78;
};

object node {
	name node_74;
	phases CN;
	nominal_voltage 2401.78;
};

object node {
	name node_75;
	phases CN;
	nominal_voltage 2401.78;
};

object node {
	name node_76;
	phases ABCN;
	nominal_voltage 2401.78;
};

object node {
	name node_77;
	phases ABCN;
	nominal_voltage 2401.78;
};

object node {
	name node_78;
	phases ABCN;
	nominal_voltage 2401.78;
};

object node {
	name node_79;
	phases ABCN;
	nominal_voltage 2401.78;
};

object node {
	name node_100;
	phases ABCN;
	nominal_voltage 2401.78;
};

object node {
	name node_101;
	phases ABCN;
	nominal_voltage 2401.78;
};

object node {
	name node_102;
	phases CN;
	nominal_voltage 2401.78;
};

object node {
	name node_103;
	phases CN;
	nominal_voltage 2401.78;
};

object node {
	name node_104;
	phases CN;
	nominal_voltage 2401.78;
};

object node {
	name node_105;
	phases ABCN;
	nominal_voltage 2401.78;
};

object node {
	name node_106;
	phases BN;
	nominal_voltage 2401.78;
};

object node {
	name node_107;
	phases BN;
	nominal_voltage 2401.78;
};

object node {
	name node_80;
	phases ABCN;
	nominal_voltage 2401.78;
};

object node {
	name node_108;
	phases ABCN;
	nominal_voltage 2401.78;
};

object node {
	name node_81;
	phases ABCN;
	nominal_voltage 2401.78;
};

object node {
	name node_109;
	phases AN;
	nominal_voltage 2401.78;
};

object node {
	name node_82;
	phases ABCN;
	nominal_voltage 2401.78;
};

object node {
	name node_83;
	phases ABCN;
	nominal_voltage 2401.78;
};

object node {
	name node_84;
	phases CN;
	nominal_voltage 2401.78;
};

object node {
	name node_85;
	phases CN;
	nominal_voltage 2401.78;
};

object node {
	name node_86;
	phases ABCN;
	nominal_voltage 2401.78;
};

object node {
	name node_87;
	phases ABCN;
	nominal_voltage 2401.78;
};

object transformer_configuration {
	name xcon_ct50;
	power_rating 50.000;
	primary_voltage 2400.000;
	secondary_voltage 120.000;
	connect_type SINGLE_PHASE_CENTER_TAPPED;
	impedance 0.00600000+0.0163200j;
	impedance1 0.0120000+0.00816000j;
	impedance2 0.0120000+0.00816000j;
	shunt_reactance 200.000000;
	shunt_resistance 500.000000;
};

object transformer_configuration {
	name xcon_ct100;
	power_rating 100.000;
	primary_voltage 2400.000;
	secondary_voltage 120.000;
	connect_type SINGLE_PHASE_CENTER_TAPPED;
	impedance 0.00600000+0.0163200j;
	impedance1 0.0120000+0.00816000j;
	impedance2 0.0120000+0.00816000j;
	shunt_reactance 200.000000;
	shunt_resistance 500.000000;
};

object transformer_configuration {
	name xcon_ct25;
	power_rating 25.000;
	primary_voltage 2400.000;
	secondary_voltage 120.000;
	connect_type SINGLE_PHASE_CENTER_TAPPED;
	impedance 0.00600000+0.0163200j;
	impedance1 0.0120000+0.00816000j;
	impedance2 0.0120000+0.00816000j;
	shunt_reactance 200.000000;
	shunt_resistance 500.000000;
};

object transformer {
	name xf_xfs_node_1_a;
	from node_1;
	to s_node_1_a;
	phases AS;
	configuration xcon_ct100;
};

object transformer {
	name xf_xfs_node_2_b;
	from node_2;
	to s_node_2_b;
	phases BS;
	configuration xcon_ct100;
};

object transformer {
	name xf_xfs_node_4_c;
	from node_4;
	to s_node_4_c;
	phases CS;
	configuration xcon_ct100;
};

object transformer {
	name xf_xfs_node_5_c;
	from node_5;
	to s_node_5_c;
	phases CS;
	configuration xcon_ct100;
};

object transformer {
	name xf_xfs_node_6_c;
	from node_6;
	to s_node_6_c;
	phases CS;
	configuration xcon_ct100;
};

object transformer {
	name xf_xfs_node_7_a;
	from node_7;
	to s_node_7_a;
	phases AS;
	configuration xcon_ct100;
};

object transformer {
	name xf_xfs_node_9_a;
	from node_9;
	to s_node_9_a;
	phases AS;
	configuration xcon_ct100;
};

object transformer {
	name xf_xfs_node_10_a;
	from node_10;
	to s_node_10_a;
	phases AS;
	configuration xcon_ct100;
};

object transformer {
	name xf_xfs_node_11_a;
	from node_11;
	to s_node_11_a;
	phases AS;
	configuration xcon_ct100;
};

object transformer {
	name xf_xfs_node_12_b;
	from node_12;
	to s_node_12_b;
	phases BS;
	configuration xcon_ct100;
};

object transformer {
	name xf_xfs_node_16_c;
	from node_16;
	to s_node_16_c;
	phases CS;
	configuration xcon_ct100;
};

object transformer {
	name xf_xfs_node_17_c;
	from node_17;
	to s_node_17_c;
	phases CS;
	configuration xcon_ct100;
};

object transformer {
	name xf_xfs_node_19_a;
	from node_19;
	to s_node_19_a;
	phases AS;
	configuration xcon_ct100;
};

object transformer {
	name xf_xfs_node_20_a;
	from node_20;
	to s_node_20_a;
	phases AS;
	configuration xcon_ct100;
};

object transformer {
	name xf_xfs_node_22_b;
	from node_22;
	to s_node_22_b;
	phases BS;
	configuration xcon_ct100;
};

object transformer {
	name xf_xfs_node_24_c;
	from node_24;
	to s_node_24_c;
	phases CS;
	configuration xcon_ct100;
};

object transformer {
	name xf_xfs_node_28_a;
	from node_28;
	to s_node_28_a;
	phases AS;
	configuration xcon_ct100;
};

object transformer {
	name xf_xfs_node_29_a;
	from node_29;
	to s_node_29_a;
	phases AS;
	configuration xcon_ct100;
};

object transformer {
	name xf_xfs_node_30_c;
	from node_30;
	to s_node_30_c;
	phases CS;
	configuration xcon_ct100;
};

object transformer {
	name xf_xfs_node_31_c;
	from node_31;
	to s_node_31_c;
	phases CS;
	configuration xcon_ct100;
};

object transformer {
	name xf_xfs_node_32_c;
	from node_32;
	to s_node_32_c;
	phases CS;
	configuration xcon_ct100;
};

object transformer {
	name xf_xfs_node_33_a;
	from node_33;
	to s_node_33_a;
	phases AS;
	configuration xcon_ct100;
};

object transformer {
	name xf_xfs_node_34_c;
	from node_34;
	to s_node_34_c;
	phases CS;
	configuration xcon_ct100;
};

object transformer {
	name xf_xfs_node_35_a;
	from node_35;
	to s_node_35_a;
	phases AS;
	configuration xcon_ct100;
};

object transformer {
	name xf_xfs_node_37_a;
	from node_37;
	to s_node_37_a;
	phases AS;
	configuration xcon_ct100;
};

object transformer {
	name xf_xfs_node_38_b;
	from node_38;
	to s_node_38_b;
	phases BS;
	configuration xcon_ct100;
};

object transformer {
	name xf_xfs_node_39_b;
	from node_39;
	to s_node_39_b;
	phases BS;
	configuration xcon_ct100;
};

object transformer {
	name xf_xfs_node_41_c;
	from node_41;
	to s_node_41_c;
	phases CS;
	configuration xcon_ct100;
};

object transformer {
	name xf_xfs_node_42_a;
	from node_42;
	to s_node_42_a;
	phases AS;
	configuration xcon_ct100;
};

object transformer {
	name xf_xfs_node_43_b;
	from node_43;
	to s_node_43_b;
	phases BS;
	configuration xcon_ct100;
};

object transformer {
	name xf_xfs_node_45_a;
	from node_45;
	to s_node_45_a;
	phases AS;
	configuration xcon_ct100;
};

object transformer {
	name xf_xfs_node_46_a;
	from node_46;
	to s_node_46_a;
	phases AS;
	configuration xcon_ct100;
};

object transformer {
	name xf_xfs_node_47_a;
	from node_47;
	to s_node_47_a;
	phases AS;
	configuration xcon_ct100;
};

object transformer {
	name xf_xfs_node_47_b;
	from node_47;
	to s_node_47_b;
	phases BS;
	configuration xcon_ct100;
};

object transformer {
	name xf_xfs_node_47_c;
	from node_47;
	to s_node_47_c;
	phases CS;
	configuration xcon_ct100;
};

object transformer {
	name xf_xfs_node_48_a;
	from node_48;
	to s_node_48_a;
	phases AS;
	configuration xcon_ct100;
};

object transformer {
	name xf_xfs_node_48_b;
	from node_48;
	to s_node_48_b;
	phases BS;
	configuration xcon_ct100;
};

object transformer {
	name xf_xfs_node_48_c;
	from node_48;
	to s_node_48_c;
	phases CS;
	configuration xcon_ct100;
};

object transformer {
	name xf_xfs_node_49_a;
	from node_49;
	to s_node_49_a;
	phases AS;
	configuration xcon_ct100;
};

object transformer {
	name xf_xfs_node_49_b;
	from node_49;
	to s_node_49_b;
	phases BS;
	configuration xcon_ct100;
};

object transformer {
	name xf_xfs_node_49_c;
	from node_49;
	to s_node_49_c;
	phases CS;
	configuration xcon_ct100;
};

object transformer {
	name xf_xfs_node_50_c;
	from node_50;
	to s_node_50_c;
	phases CS;
	configuration xcon_ct100;
};

object transformer {
	name xf_xfs_node_51_a;
	from node_51;
	to s_node_51_a;
	phases AS;
	configuration xcon_ct100;
};

object transformer {
	name xf_xfs_node_52_a;
	from node_52;
	to s_node_52_a;
	phases AS;
	configuration xcon_ct100;
};

object transformer {
	name xf_xfs_node_53_a;
	from node_53;
	to s_node_53_a;
	phases AS;
	configuration xcon_ct100;
};

object transformer {
	name xf_xfs_node_55_a;
	from node_55;
	to s_node_55_a;
	phases AS;
	configuration xcon_ct100;
};

object transformer {
	name xf_xfs_node_56_b;
	from node_56;
	to s_node_56_b;
	phases BS;
	configuration xcon_ct100;
};

object transformer {
	name xf_xfs_node_58_b;
	from node_58;
	to s_node_58_b;
	phases BS;
	configuration xcon_ct100;
};

object transformer {
	name xf_xfs_node_59_b;
	from node_59;
	to s_node_59_b;
	phases BS;
	configuration xcon_ct100;
};

object transformer {
	name xf_xfs_node_61_a;
	from node_61;
	to s_node_61_a;
	phases AS;
	configuration xcon_ct100;
};

object transformer {
	name xf_xfs_node_62_c;
	from node_62;
	to s_node_62_c;
	phases CS;
	configuration xcon_ct100;
};

object transformer {
	name xf_xfs_node_63_a;
	from node_63;
	to s_node_63_a;
	phases AS;
	configuration xcon_ct100;
};

object transformer {
	name xf_xfs_node_64_b;
	from node_64;
	to s_node_64_b;
	phases BS;
	configuration xcon_ct100;
};

object transformer {
	name xf_xfs_node_65_a;
	from node_65;
	to s_node_65_a;
	phases AS;
	configuration xcon_ct100;
};

object transformer {
	name xf_xfs_node_65_b;
	from node_65;
	to s_node_65_b;
	phases BS;
	configuration xcon_ct100;
};

object transformer {
	name xf_xfs_node_65_c;
	from node_65;
	to s_node_65_c;
	phases CS;
	configuration xcon_ct100;
};

object transformer {
	name xf_xfs_node_66_c;
	from node_66;
	to s_node_66_c;
	phases CS;
	configuration xcon_ct100;
};

object transformer {
	name xf_xfs_node_68_a;
	from node_68;
	to s_node_68_a;
	phases AS;
	configuration xcon_ct100;
};

object transformer {
	name xf_xfs_node_69_a;
	from node_69;
	to s_node_69_a;
	phases AS;
	configuration xcon_ct100;
};

object transformer {
	name xf_xfs_node_70_a;
	from node_70;
	to s_node_70_a;
	phases AS;
	configuration xcon_ct100;
};

object transformer {
	name xf_xfs_node_71_a;
	from node_71;
	to s_node_71_a;
	phases AS;
	configuration xcon_ct100;
};

object transformer {
	name xf_xfs_node_73_c;
	from node_73;
	to s_node_73_c;
	phases CS;
	configuration xcon_ct100;
};

object transformer {
	name xf_xfs_node_74_c;
	from node_74;
	to s_node_74_c;
	phases CS;
	configuration xcon_ct100;
};

object transformer {
	name xf_xfs_node_75_c;
	from node_75;
	to s_node_75_c;
	phases CS;
	configuration xcon_ct100;
};

object transformer {
	name xf_xfs_node_76_a;
	from node_76;
	to s_node_76_a;
	phases AS;
	configuration xcon_ct100;
};

object transformer {
	name xf_xfs_node_76_b;
	from node_76;
	to s_node_76_b;
	phases BS;
	configuration xcon_ct100;
};

object transformer {
	name xf_xfs_node_76_c;
	from node_76;
	to s_node_76_c;
	phases CS;
	configuration xcon_ct100;
};

object transformer {
	name xf_xfs_node_77_b;
	from node_77;
	to s_node_77_b;
	phases BS;
	configuration xcon_ct100;
};

object transformer {
	name xf_xfs_node_79_a;
	from node_79;
	to s_node_79_a;
	phases AS;
	configuration xcon_ct100;
};

object transformer {
	name xf_xfs_node_80_b;
	from node_80;
	to s_node_80_b;
	phases BS;
	configuration xcon_ct100;
};

object transformer {
	name xf_xfs_node_82_a;
	from node_82;
	to s_node_82_a;
	phases AS;
	configuration xcon_ct100;
};

object transformer {
	name xf_xfs_node_83_c;
	from node_83;
	to s_node_83_c;
	phases CS;
	configuration xcon_ct100;
};

object transformer {
	name xf_xfs_node_84_c;
	from node_84;
	to s_node_84_c;
	phases CS;
	configuration xcon_ct100;
};

object transformer {
	name xf_xfs_node_85_c;
	from node_85;
	to s_node_85_c;
	phases CS;
	configuration xcon_ct100;
};

object transformer {
	name xf_xfs_node_86_b;
	from node_86;
	to s_node_86_b;
	phases BS;
	configuration xcon_ct100;
};

object transformer {
	name xf_xfs_node_87_b;
	from node_87;
	to s_node_87_b;
	phases BS;
	configuration xcon_ct100;
};

object transformer {
	name xf_xfs_node_88_a;
	from node_88;
	to s_node_88_a;
	phases AS;
	configuration xcon_ct100;
};

object transformer {
	name xf_xfs_node_90_b;
	from node_90;
	to s_node_90_b;
	phases BS;
	configuration xcon_ct100;
};

object transformer {
	name xf_xfs_node_92_c;
	from node_92;
	to s_node_92_c;
	phases CS;
	configuration xcon_ct100;
};

object transformer {
	name xf_xfs_node_94_a;
	from node_94;
	to s_node_94_a;
	phases AS;
	configuration xcon_ct100;
};

object transformer {
	name xf_xfs_node_95_b;
	from node_95;
	to s_node_95_b;
	phases BS;
	configuration xcon_ct100;
};

object transformer {
	name xf_xfs_node_96_b;
	from node_96;
	to s_node_96_b;
	phases BS;
	configuration xcon_ct100;
};

object transformer {
	name xf_xfs_node_98_a;
	from node_98;
	to s_node_98_a;
	phases AS;
	configuration xcon_ct100;
};

object transformer {
	name xf_xfs_node_99_b;
	from node_99;
	to s_node_99_b;
	phases BS;
	configuration xcon_ct100;
};

object transformer {
	name xf_xfs_node_100_c;
	from node_100;
	to s_node_100_c;
	phases CS;
	configuration xcon_ct100;
};

object transformer {
	name xf_xfs_node_102_c;
	from node_102;
	to s_node_102_c;
	phases CS;
	configuration xcon_ct100;
};

object transformer {
	name xf_xfs_node_103_c;
	from node_103;
	to s_node_103_c;
	phases CS;
	configuration xcon_ct100;
};

object transformer {
	name xf_xfs_node_104_c;
	from node_104;
	to s_node_104_c;
	phases CS;
	configuration xcon_ct100;
};

object transformer {
	name xf_xfs_node_106_b;
	from node_106;
	to s_node_106_b;
	phases BS;
	configuration xcon_ct100;
};

object transformer {
	name xf_xfs_node_107_b;
	from node_107;
	to s_node_107_b;
	phases BS;
	configuration xcon_ct100;
};

object transformer {
	name xf_xfs_node_109_a;
	from node_109;
	to s_node_109_a;
	phases AS;
	configuration xcon_ct100;
};

object transformer {
	name xf_xfs_node_111_a;
	from node_111;
	to s_node_111_a;
	phases AS;
	configuration xcon_ct100;
};

object transformer {
	name xf_xfs_node_112_a;
	from node_112;
	to s_node_112_a;
	phases AS;
	configuration xcon_ct100;
};

object transformer {
	name xf_xfs_node_113_a;
	from node_113;
	to s_node_113_a;
	phases AS;
	configuration xcon_ct100;
};

object transformer {
	name xf_xfs_node_114_a;
	from node_114;
	to s_node_114_a;
	phases AS;
	configuration xcon_ct100;
};

object triplex_node {
	name s_node_1_a;
	phases AS;
	nominal_voltage 120.09;
};

object triplex_node {
	name s_node_2_b;
	phases BS;
	nominal_voltage 120.09;
};

object triplex_node {
	name s_node_4_c;
	phases CS;
	nominal_voltage 120.09;
};

object triplex_node {
	name s_node_5_c;
	phases CS;
	nominal_voltage 120.09;
};

object triplex_node {
	name s_node_6_c;
	phases CS;
	nominal_voltage 120.09;
};

object triplex_node {
	name s_node_7_a;
	phases AS;
	nominal_voltage 120.09;
};

object triplex_node {
	name s_node_9_a;
	phases AS;
	nominal_voltage 120.09;
};

object triplex_node {
	name s_node_10_a;
	phases AS;
	nominal_voltage 120.09;
};

object triplex_node {
	name s_node_11_a;
	phases AS;
	nominal_voltage 120.09;
};

object triplex_node {
	name s_node_12_b;
	phases BS;
	nominal_voltage 120.09;
};

object triplex_node {
	name s_node_16_c;
	phases CS;
	nominal_voltage 120.09;
};

object triplex_node {
	name s_node_17_c;
	phases CS;
	nominal_voltage 120.09;
};

object triplex_node {
	name s_node_19_a;
	phases AS;
	nominal_voltage 120.09;
};

object triplex_node {
	name s_node_20_a;
	phases AS;
	nominal_voltage 120.09;
};

object triplex_node {
	name s_node_22_b;
	phases BS;
	nominal_voltage 120.09;
};

object triplex_node {
	name s_node_24_c;
	phases CS;
	nominal_voltage 120.09;
};

object triplex_node {
	name s_node_28_a;
	phases AS;
	nominal_voltage 120.09;
};

object triplex_node {
	name s_node_29_a;
	phases AS;
	nominal_voltage 120.09;
};

object triplex_node {
	name s_node_30_c;
	phases CS;
	nominal_voltage 120.09;
};

object triplex_node {
	name s_node_31_c;
	phases CS;
	nominal_voltage 120.09;
};

object triplex_node {
	name s_node_32_c;
	phases CS;
	nominal_voltage 120.09;
};

object triplex_node {
	name s_node_33_a;
	phases AS;
	nominal_voltage 120.09;
};

object triplex_node {
	name s_node_34_c;
	phases CS;
	nominal_voltage 120.09;
};

object triplex_node {
	name s_node_35_a;
	phases AS;
	nominal_voltage 120.09;
};

object triplex_node {
	name s_node_37_a;
	phases AS;
	nominal_voltage 120.09;
};

object triplex_node {
	name s_node_38_b;
	phases BS;
	nominal_voltage 120.09;
};

object triplex_node {
	name s_node_39_b;
	phases BS;
	nominal_voltage 120.09;
};

object triplex_node {
	name s_node_41_c;
	phases CS;
	nominal_voltage 120.09;
};

object triplex_node {
	name s_node_42_a;
	phases AS;
	nominal_voltage 120.09;
};

object triplex_node {
	name s_node_43_b;
	phases BS;
	nominal_voltage 120.09;
};

object triplex_node {
	name s_node_45_a;
	phases AS;
	nominal_voltage 120.09;
};

object triplex_node {
	name s_node_46_a;
	phases AS;
	nominal_voltage 120.09;
};

object triplex_node {
	name s_node_47_a;
	phases AS;
	nominal_voltage 120.09;
};

object triplex_node {
	name s_node_47_b;
	phases BS;
	nominal_voltage 120.09;
};

object triplex_node {
	name s_node_47_c;
	phases CS;
	nominal_voltage 120.09;
};

object triplex_node {
	name s_node_48_a;
	phases AS;
	nominal_voltage 120.09;
};

object triplex_node {
	name s_node_48_b;
	phases BS;
	nominal_voltage 120.09;
};

object triplex_node {
	name s_node_48_c;
	phases CS;
	nominal_voltage 120.09;
};

object triplex_node {
	name s_node_49_a;
	phases AS;
	nominal_voltage 120.09;
};

object triplex_node {
	name s_node_49_b;
	phases BS;
	nominal_voltage 120.09;
};

object triplex_node {
	name s_node_49_c;
	phases CS;
	nominal_voltage 120.09;
};

object triplex_node {
	name s_node_50_c;
	phases CS;
	nominal_voltage 120.09;
};

object triplex_node {
	name s_node_51_a;
	phases AS;
	nominal_voltage 120.09;
};

object triplex_node {
	name s_node_52_a;
	phases AS;
	nominal_voltage 120.09;
};

object triplex_node {
	name s_node_53_a;
	phases AS;
	nominal_voltage 120.09;
};

object triplex_node {
	name s_node_55_a;
	phases AS;
	nominal_voltage 120.09;
};

object triplex_node {
	name s_node_56_b;
	phases BS;
	nominal_voltage 120.09;
};

object triplex_node {
	name s_node_58_b;
	phases BS;
	nominal_voltage 120.09;
};

object triplex_node {
	name s_node_59_b;
	phases BS;
	nominal_voltage 120.09;
};

object triplex_node {
	name s_node_61_a;
	phases AS;
	nominal_voltage 120.09;
};

object triplex_node {
	name s_node_62_c;
	phases CS;
	nominal_voltage 120.09;
};

object triplex_node {
	name s_node_63_a;
	phases AS;
	nominal_voltage 120.09;
};

object triplex_node {
	name s_node_64_b;
	phases BS;
	nominal_voltage 120.09;
};

object triplex_node {
	name s_node_65_a;
	phases AS;
	nominal_voltage 120.09;
};

object triplex_node {
	name s_node_65_b;
	phases BS;
	nominal_voltage 120.09;
};

object triplex_node {
	name s_node_65_c;
	phases CS;
	nominal_voltage 120.09;
};

object triplex_node {
	name s_node_66_c;
	phases CS;
	nominal_voltage 120.09;
};

object triplex_node {
	name s_node_68_a;
	phases AS;
	nominal_voltage 120.09;
};

object triplex_node {
	name s_node_69_a;
	phases AS;
	nominal_voltage 120.09;
};

object triplex_node {
	name s_node_70_a;
	phases AS;
	nominal_voltage 120.09;
};

object triplex_node {
	name s_node_71_a;
	phases AS;
	nominal_voltage 120.09;
};

object triplex_node {
	name s_node_73_c;
	phases CS;
	nominal_voltage 120.09;
};

object triplex_node {
	name s_node_74_c;
	phases CS;
	nominal_voltage 120.09;
};

object triplex_node {
	name s_node_75_c;
	phases CS;
	nominal_voltage 120.09;
};

object triplex_node {
	name s_node_76_a;
	phases AS;
	nominal_voltage 120.09;
};

object triplex_node {
	name s_node_76_b;
	phases BS;
	nominal_voltage 120.09;
};

object triplex_node {
	name s_node_76_c;
	phases CS;
	nominal_voltage 120.09;
};

object triplex_node {
	name s_node_77_b;
	phases BS;
	nominal_voltage 120.09;
};

object triplex_node {
	name s_node_79_a;
	phases AS;
	nominal_voltage 120.09;
};

object triplex_node {
	name s_node_80_b;
	phases BS;
	nominal_voltage 120.09;
};

object triplex_node {
	name s_node_82_a;
	phases AS;
	nominal_voltage 120.09;
};

object triplex_node {
	name s_node_83_c;
	phases CS;
	nominal_voltage 120.09;
};

object triplex_node {
	name s_node_84_c;
	phases CS;
	nominal_voltage 120.09;
};

object triplex_node {
	name s_node_85_c;
	phases CS;
	nominal_voltage 120.09;
};

object triplex_node {
	name s_node_86_b;
	phases BS;
	nominal_voltage 120.09;
};

object triplex_node {
	name s_node_87_b;
	phases BS;
	nominal_voltage 120.09;
};

object triplex_node {
	name s_node_88_a;
	phases AS;
	nominal_voltage 120.09;
};

object triplex_node {
	name s_node_90_b;
	phases BS;
	nominal_voltage 120.09;
};

object triplex_node {
	name s_node_92_c;
	phases CS;
	nominal_voltage 120.09;
};

object triplex_node {
	name s_node_94_a;
	phases AS;
	nominal_voltage 120.09;
};

object triplex_node {
	name s_node_95_b;
	phases BS;
	nominal_voltage 120.09;
};

object triplex_node {
	name s_node_96_b;
	phases BS;
	nominal_voltage 120.09;
};

object triplex_node {
	name s_node_98_a;
	phases AS;
	nominal_voltage 120.09;
};

object triplex_node {
	name s_node_99_b;
	phases BS;
	nominal_voltage 120.09;
};

object triplex_node {
	name s_node_100_c;
	phases CS;
	nominal_voltage 120.09;
};

object triplex_node {
	name s_node_102_c;
	phases CS;
	nominal_voltage 120.09;
};

object triplex_node {
	name s_node_103_c;
	phases CS;
	nominal_voltage 120.09;
};

object triplex_node {
	name s_node_104_c;
	phases CS;
	nominal_voltage 120.09;
};

object triplex_node {
	name s_node_106_b;
	phases BS;
	nominal_voltage 120.09;
};

object triplex_node {
	name s_node_107_b;
	phases BS;
	nominal_voltage 120.09;
};

object triplex_node {
	name s_node_109_a;
	phases AS;
	nominal_voltage 120.09;
};

object triplex_node {
	name s_node_111_a;
	phases AS;
	nominal_voltage 120.09;
};

object triplex_node {
	name s_node_112_a;
	phases AS;
	nominal_voltage 120.09;
};

object triplex_node {
	name s_node_113_a;
	phases AS;
	nominal_voltage 120.09;
};

object triplex_node {
	name s_node_114_a;
	phases AS;
	nominal_voltage 120.09;
};

object triplex_line {
	name trpln_agg_0_A_1_node_1_1;
	phases AS;
	from s_node_1_a;
	to house_agg_0_A_1_node_1_1;
	length 50.00;
	configuration trip_line_config;
};

object triplex_line {
	name trpln_agg_0_A_2_node_1_2;
	phases AS;
	from s_node_1_a;
	to house_agg_0_A_2_node_1_2;
	length 50.00;
	configuration trip_line_config;
};

object triplex_line {
	name trpln_agg_0_A_3_node_1_3;
	phases AS;
	from s_node_1_a;
	to house_agg_0_A_3_node_1_3;
	length 50.00;
	configuration trip_line_config;
};

object triplex_line {
	name trpln_agg_0_A_4_node_1_4;
	phases AS;
	from s_node_1_a;
	to house_agg_0_A_4_node_1_4;
	length 50.00;
	configuration trip_line_config;
};

object triplex_line {
	name trpln_agg_0_A_5_node_1_5;
	phases AS;
	from s_node_1_a;
	to house_agg_0_A_5_node_1_5;
	length 50.00;
	configuration trip_line_config;
};

object triplex_line {
	name trpln_agg_0_A_6_node_1_6;
	phases AS;
	from s_node_1_a;
	to house_agg_0_A_6_node_1_6;
	length 50.00;
	configuration trip_line_config;
};

object triplex_line {
	name trpln_agg_0_A_7_node_1_7;
	phases AS;
	from s_node_1_a;
	to house_agg_0_A_7_node_1_7;
	length 50.00;
	configuration trip_line_config;
};

object triplex_line {
	name trpln_agg_0_A_8_node_1_8;
	phases AS;
	from s_node_1_a;
	to house_agg_0_A_8_node_1_8;
	length 50.00;
	configuration trip_line_config;
};

object triplex_line {
	name trpln_agg_0_A_9_node_1_9;
	phases AS;
	from s_node_1_a;
	to house_agg_0_A_9_node_1_9;
	length 50.00;
	configuration trip_line_config;
};

object triplex_line {
	name trpln_agg_0_A_10_node_1_10;
	phases AS;
	from s_node_1_a;
	to house_agg_0_A_10_node_1_10;
	length 50.00;
	configuration trip_line_config;
};

object triplex_line {
	name trpln_agg_0_A_11_node_1_11;
	phases AS;
	from s_node_1_a;
	to house_agg_0_A_11_node_1_11;
	length 50.00;
	configuration trip_line_config;
};

object triplex_line {
	name trpln_agg_0_A_12_node_1_12;
	phases AS;
	from s_node_1_a;
	to house_agg_0_A_12_node_1_12;
	length 50.00;
	configuration trip_line_config;
};

object triplex_line {
	name trpln_agg_0_A_13_node_1_13;
	phases AS;
	from s_node_1_a;
	to house_agg_0_A_13_node_1_13;
	length 50.00;
	configuration trip_line_config;
};

object triplex_line {
	name trpln_agg_0_A_14_node_1_14;
	phases AS;
	from s_node_1_a;
	to house_agg_0_A_14_node_1_14;
	length 50.00;
	configuration trip_line_config;
};

object triplex_line {
	name trpln_agg_0_A_15_node_1_15;
	phases AS;
	from s_node_1_a;
	to house_agg_0_A_15_node_1_15;
	length 50.00;
	configuration trip_line_config;
};

object triplex_line {
	name trpln_agg_0_B_1_node_2_16;
	phases BS;
	from s_node_2_b;
	to house_agg_0_B_1_node_2_16;
	length 50.00;
	configuration trip_line_config;
};

object triplex_line {
	name trpln_agg_0_B_2_node_2_17;
	phases BS;
	from s_node_2_b;
	to house_agg_0_B_2_node_2_17;
	length 50.00;
	configuration trip_line_config;
};

object triplex_line {
	name trpln_agg_0_B_3_node_2_18;
	phases BS;
	from s_node_2_b;
	to house_agg_0_B_3_node_2_18;
	length 50.00;
	configuration trip_line_config;
};

object triplex_line {
	name trpln_agg_0_B_4_node_2_19;
	phases BS;
	from s_node_2_b;
	to house_agg_0_B_4_node_2_19;
	length 50.00;
	configuration trip_line_config;
};

object triplex_line {
	name trpln_agg_0_B_5_node_2_20;
	phases BS;
	from s_node_2_b;
	to house_agg_0_B_5_node_2_20;
	length 50.00;
	configuration trip_line_config;
};

object triplex_line {
	name trpln_agg_0_B_6_node_2_21;
	phases BS;
	from s_node_2_b;
	to house_agg_0_B_6_node_2_21;
	length 50.00;
	configuration trip_line_config;
};

object triplex_line {
	name trpln_agg_0_B_7_node_2_22;
	phases BS;
	from s_node_2_b;
	to house_agg_0_B_7_node_2_22;
	length 50.00;
	configuration trip_line_config;
};

object triplex_line {
	name trpln_agg_0_B_8_node_2_23;
	phases BS;
	from s_node_2_b;
	to house_agg_0_B_8_node_2_23;
	length 50.00;
	configuration trip_line_config;
};

object triplex_line {
	name trpln_agg_0_C_1_node_4_24;
	phases CS;
	from s_node_4_c;
	to house_agg_0_C_1_node_4_24;
	length 50.00;
	configuration trip_line_config;
};

object triplex_line {
	name trpln_agg_0_C_2_node_4_25;
	phases CS;
	from s_node_4_c;
	to house_agg_0_C_2_node_4_25;
	length 50.00;
	configuration trip_line_config;
};

object triplex_line {
	name trpln_agg_0_C_3_node_4_26;
	phases CS;
	from s_node_4_c;
	to house_agg_0_C_3_node_4_26;
	length 50.00;
	configuration trip_line_config;
};

object triplex_line {
	name trpln_agg_0_C_4_node_4_27;
	phases CS;
	from s_node_4_c;
	to house_agg_0_C_4_node_4_27;
	length 50.00;
	configuration trip_line_config;
};

object triplex_line {
	name trpln_agg_0_C_5_node_4_28;
	phases CS;
	from s_node_4_c;
	to house_agg_0_C_5_node_4_28;
	length 50.00;
	configuration trip_line_config;
};

object triplex_line {
	name trpln_agg_0_C_6_node_4_29;
	phases CS;
	from s_node_4_c;
	to house_agg_0_C_6_node_4_29;
	length 50.00;
	configuration trip_line_config;
};

object triplex_line {
	name trpln_agg_0_C_7_node_4_30;
	phases CS;
	from s_node_4_c;
	to house_agg_0_C_7_node_4_30;
	length 50.00;
	configuration trip_line_config;
};

object triplex_line {
	name trpln_agg_0_C_8_node_4_31;
	phases CS;
	from s_node_4_c;
	to house_agg_0_C_8_node_4_31;
	length 50.00;
	configuration trip_line_config;
};

object triplex_line {
	name trpln_agg_0_C_9_node_4_32;
	phases CS;
	from s_node_4_c;
	to house_agg_0_C_9_node_4_32;
	length 50.00;
	configuration trip_line_config;
};

object triplex_line {
	name trpln_agg_0_C_10_node_4_33;
	phases CS;
	from s_node_4_c;
	to house_agg_0_C_10_node_4_33;
	length 50.00;
	configuration trip_line_config;
};

object triplex_line {
	name trpln_agg_0_C_11_node_4_34;
	phases CS;
	from s_node_4_c;
	to house_agg_0_C_11_node_4_34;
	length 50.00;
	configuration trip_line_config;
};

object triplex_line {
	name trpln_agg_0_C_12_node_4_35;
	phases CS;
	from s_node_4_c;
	to house_agg_0_C_12_node_4_35;
	length 50.00;
	configuration trip_line_config;
};

object triplex_line {
	name trpln_agg_0_C_13_node_4_36;
	phases CS;
	from s_node_4_c;
	to house_agg_0_C_13_node_4_36;
	length 50.00;
	configuration trip_line_config;
};

object triplex_line {
	name trpln_agg_0_C_14_node_4_37;
	phases CS;
	from s_node_4_c;
	to house_agg_0_C_14_node_4_37;
	length 50.00;
	configuration trip_line_config;
};

object triplex_line {
	name trpln_agg_0_C_15_node_4_38;
	phases CS;
	from s_node_4_c;
	to house_agg_0_C_15_node_4_38;
	length 50.00;
	configuration trip_line_config;
};

object triplex_line {
	name trpln_agg_0_C_1_node_5_39;
	phases CS;
	from s_node_5_c;
	to house_agg_0_C_1_node_5_39;
	length 50.00;
	configuration trip_line_config;
};

object triplex_line {
	name trpln_agg_0_C_2_node_5_40;
	phases CS;
	from s_node_5_c;
	to house_agg_0_C_2_node_5_40;
	length 50.00;
	configuration trip_line_config;
};

object triplex_line {
	name trpln_agg_0_C_3_node_5_41;
	phases CS;
	from s_node_5_c;
	to house_agg_0_C_3_node_5_41;
	length 50.00;
	configuration trip_line_config;
};

object triplex_line {
	name trpln_agg_0_C_4_node_5_42;
	phases CS;
	from s_node_5_c;
	to house_agg_0_C_4_node_5_42;
	length 50.00;
	configuration trip_line_config;
};

object triplex_line {
	name trpln_agg_0_C_5_node_5_43;
	phases CS;
	from s_node_5_c;
	to house_agg_0_C_5_node_5_43;
	length 50.00;
	configuration trip_line_config;
};

...